Version 4
SHEET 1 1860 680
WIRE 912 -192 800 -192
WIRE 960 -192 912 -192
WIRE 992 -192 960 -192
WIRE 480 -96 288 -96
WIRE 912 16 912 -192
WIRE 960 16 912 16
WIRE 288 32 288 -96
WIRE 320 32 288 32
WIRE 1136 32 1024 32
WIRE 1200 32 1136 32
WIRE 1312 32 1280 32
WIRE 480 48 480 -96
WIRE 480 48 384 48
WIRE 576 48 480 48
WIRE 672 48 640 48
WIRE 736 48 672 48
WIRE 912 48 816 48
WIRE 960 48 912 48
WIRE 128 64 80 64
WIRE 320 64 208 64
WIRE 672 80 672 48
WIRE 80 112 80 64
WIRE 912 192 912 48
WIRE 960 192 912 192
WIRE 1136 192 1136 32
WIRE 1136 192 1040 192
FLAG 80 -112 Vinput
FLAG 80 -32 0
FLAG 352 80 0
FLAG 352 16 Vinput
FLAG 80 192 0
FLAG 992 64 0
FLAG 992 0 Vinput
FLAG 720 -192 Vinput
FLAG 1072 -192 0
FLAG 672 160 0
FLAG 960 -256 0
SYMBOL voltage 80 96 R0
WINDOW 123 0 0 Left 0
WINDOW 39 0 0 Left 0
SYMATTR InstName V1
SYMATTR Value PULSE(0 2 0 1u 1u 100m 200m)
SYMBOL res 224 48 R90
WINDOW 0 0 56 VBottom 2
WINDOW 3 32 56 VTop 2
SYMATTR InstName R1
SYMATTR Value 56k
SYMBOL OpAmps\\OP284 352 -16 R0
SYMATTR InstName U1
SYMBOL voltage 80 -128 R0
WINDOW 123 0 0 Left 0
WINDOW 39 0 0 Left 0
SYMATTR InstName V2
SYMATTR Value 5
SYMBOL voltage 208 -288 R0
WINDOW 123 0 0 Left 0
WINDOW 39 0 0 Left 0
SYMATTR InstName V3
SYMATTR Value SINE(1 1 10)
SYMBOL cap 640 32 R90
WINDOW 0 0 32 VBottom 2
WINDOW 3 32 32 VTop 2
SYMATTR InstName C1
SYMATTR Value 100n
SYMBOL res 656 64 R0
SYMATTR InstName R9
SYMATTR Value 39k
SYMBOL res 1088 -208 R90
WINDOW 0 0 56 VBottom 2
WINDOW 3 32 56 VTop 2
SYMATTR InstName R2
SYMATTR Value 15k
SYMBOL res 816 -208 R90
WINDOW 0 0 56 VBottom 2
WINDOW 3 32 56 VTop 2
SYMATTR InstName R7
SYMATTR Value 56k
SYMBOL res 1056 176 R90
WINDOW 0 0 56 VBottom 2
WINDOW 3 32 56 VTop 2
SYMATTR InstName R8
SYMATTR Value 1Meg
SYMBOL res 832 32 R90
WINDOW 0 0 56 VBottom 2
WINDOW 3 32 56 VTop 2
SYMATTR InstName R11
SYMATTR Value 100k
SYMBOL OpAmps\\OP284 992 -32 R0
SYMATTR InstName U2
SYMBOL res 1296 16 R90
WINDOW 0 0 56 VBottom 2
WINDOW 3 32 56 VTop 2
SYMATTR InstName R12
SYMATTR Value 4.7k
SYMBOL cap 944 -256 R0
SYMATTR InstName C2
SYMATTR Value 100n
TEXT -16 288 Left 2 !.tran 0 1 0 100
