Version 4
SHEET 1 1860 680
WIRE 1072 -256 1024 -256
WIRE 1200 -256 1136 -256
WIRE 1024 -160 1024 -256
WIRE 1024 -160 912 -160
WIRE 1072 -160 1024 -160
WIRE 1200 -160 1200 -256
WIRE 1200 -160 1152 -160
WIRE 1200 -112 1200 -160
WIRE 480 -96 288 -96
WIRE 1024 16 1024 -160
WIRE 1072 16 1024 16
WIRE 288 32 288 -96
WIRE 320 32 288 32
WIRE 1248 32 1136 32
WIRE 1312 32 1248 32
WIRE 1424 32 1392 32
WIRE 480 48 480 -96
WIRE 480 48 384 48
WIRE 576 48 480 48
WIRE 688 48 656 48
WIRE 784 48 752 48
WIRE 848 48 784 48
WIRE 1024 48 928 48
WIRE 1072 48 1024 48
WIRE 128 64 80 64
WIRE 272 64 208 64
WIRE 320 64 272 64
WIRE 784 80 784 48
WIRE 272 96 272 64
WIRE 80 112 80 64
WIRE 1024 192 1024 48
WIRE 1072 192 1024 192
WIRE 1248 192 1248 32
WIRE 1248 192 1152 192
FLAG 80 -112 Vinput
FLAG 80 -32 0
FLAG 352 80 0
FLAG 352 16 Vinput
FLAG 80 192 0
FLAG 1104 64 0
FLAG 1104 0 Vinput
FLAG 832 -160 Vinput
FLAG 784 160 0
FLAG 272 160 0
FLAG 1200 -112 0
SYMBOL voltage 80 96 R0
WINDOW 123 0 0 Left 0
WINDOW 39 0 0 Left 0
SYMATTR InstName V1
SYMATTR Value PULSE(0 2 0 1u 1u 10m 20m)
SYMBOL res 224 48 R90
WINDOW 0 0 56 VBottom 2
WINDOW 3 32 56 VTop 2
SYMATTR InstName R1
SYMATTR Value 56K
SYMATTR SpiceLine tol=1 pwr=0.1
SYMBOL OpAmps\\OP284 352 -16 R0
SYMATTR InstName U1
SYMBOL voltage 80 -128 R0
WINDOW 123 0 0 Left 0
WINDOW 39 0 0 Left 0
SYMATTR InstName V2
SYMATTR Value 5
SYMBOL voltage 208 -288 R0
WINDOW 123 0 0 Left 0
WINDOW 39 0 0 Left 0
SYMATTR InstName V3
SYMATTR Value SINE(1 1 10)
SYMBOL cap 752 32 R90
WINDOW 0 0 32 VBottom 2
WINDOW 3 32 32 VTop 2
SYMATTR InstName C1
SYMATTR Value 0.1µ
SYMATTR SpiceLine V=16 Irms=0 Rser=0.0189 Lser=315p mfg="Würth Elektronik" pn="885012105016 WCAP-CSGP 0402" type="X5R"
SYMBOL res 768 64 R0
SYMATTR InstName R9
SYMATTR Value 39k
SYMBOL res 928 -176 R90
WINDOW 0 0 56 VBottom 2
WINDOW 3 32 56 VTop 2
SYMATTR InstName R7
SYMATTR Value 56k
SYMBOL res 1168 176 R90
WINDOW 0 0 56 VBottom 2
WINDOW 3 32 56 VTop 2
SYMATTR InstName R8
SYMATTR Value 1Meg
SYMBOL res 944 32 R90
WINDOW 0 0 56 VBottom 2
WINDOW 3 32 56 VTop 2
SYMATTR InstName R11
SYMATTR Value 100k
SYMBOL OpAmps\\OP284 1104 -32 R0
SYMATTR InstName U2
SYMBOL res 1408 16 R90
WINDOW 0 0 56 VBottom 2
WINDOW 3 32 56 VTop 2
SYMATTR InstName R12
SYMATTR Value 4.7k
SYMBOL cap 256 96 R0
SYMATTR InstName C3
SYMATTR Value 0.001µ
SYMATTR SpiceLine V=500 Irms=0 Rser=0.0609 Lser=406p mfg="Würth Elektronik" pn="885342008003 WCAP-CSMH 1206" type="NP0"
SYMBOL cap 1136 -272 R90
WINDOW 0 0 32 VBottom 2
WINDOW 3 32 32 VTop 2
SYMATTR InstName C2
SYMATTR Value 0.1µ
SYMATTR SpiceLine V=16 Irms=0 Rser=0.0189 Lser=315p mfg="Würth Elektronik" pn="885012105016 WCAP-CSGP 0402" type="X5R"
SYMBOL res 1056 -144 R270
WINDOW 0 32 56 VTop 2
WINDOW 3 0 56 VBottom 2
SYMATTR InstName R2
SYMATTR Value 15k
SYMBOL res 560 64 R270
WINDOW 0 32 56 VTop 2
WINDOW 3 0 56 VBottom 2
SYMATTR InstName R3
SYMATTR Value 2.2
TEXT -16 288 Left 2 !.tran 0 1 0 100
